20055378
  -OEChem-02102505543D

 81 84  0     1  0  0  0  0  0999 V2000
   -5.1111   -0.5862    2.0420 O   0  0  0  0  0  0  0  0  0  0  0  0
    1.2092   -0.5158    2.5160 O   0  0  0  0  0  0  0  0  0  0  0  0
    7.9421   -1.5201    0.1139 O   0  0  0  0  0  0  0  0  0  0  0  0
    3.3830   -1.1372    2.7097 O   0  0  0  0  0  0  0  0  0  0  0  0
    7.3793   -1.2863   -2.0743 O   0  0  0  0  0  0  0  0  0  0  0  0
   -2.5747    2.0927    1.8089 O   0  0  0  0  0  0  0  0  0  0  0  0
   -0.0650   -1.6953   -1.2224 N   0  0  0  0  0  0  0  0  0  0  0  0
    1.5900    0.9173   -0.3482 N   0  0  0  0  0  0  0  0  0  0  0  0
   -3.5495   -1.4020    0.5134 N   0  0  0  0  0  0  0  0  0  0  0  0
   -0.4031    2.3361    1.0089 N   0  0  0  0  0  0  0  0  0  0  0  0
    0.6758   -2.9586    0.4470 C   0  0  0  0  0  0  0  0  0  0  0  0
    1.0468   -2.0191   -0.4896 C   0  0  0  0  0  0  0  0  0  0  0  0
   -0.7076   -3.2084    0.2708 C   0  0  0  0  0  0  0  0  0  0  0  0
   -1.1399   -2.4142   -0.7683 C   0  0  0  0  0  0  0  0  0  0  0  0
    3.7240    0.6689   -1.0632 C   0  0  0  0  0  0  0  0  0  0  0  0
    2.4835   -0.0474   -0.7404 C   0  0  0  0  0  0  0  0  0  0  0  0
    2.2796   -1.3673   -0.8167 C   0  0  0  0  0  0  0  0  0  0  0  0
    3.5180    1.9914   -0.8539 C   0  0  0  0  0  0  0  0  0  0  0  0
    1.5571   -3.5897    1.4522 C   0  0  0  0  0  0  0  0  0  0  0  0
   -5.7207   -0.9900   -0.2882 C   0  0  2  0  0  0  0  0  0  0  0  0
   -3.4994   -1.7460   -0.8058 C   0  0  0  0  0  0  0  0  0  0  0  0
    2.1373    2.1748   -0.3891 C   0  0  0  0  0  0  0  0  0  0  0  0
   -4.8081   -1.5138   -1.3805 C   0  0  0  0  0  0  0  0  0  0  0  0
    4.9551   -0.0248   -1.5344 C   0  0  0  0  0  0  0  0  0  0  0  0
   -2.3778   -2.2171   -1.4015 C   0  0  0  0  0  0  0  0  0  0  0  0
   -1.5346   -4.1484    1.0568 C   0  0  0  0  0  0  0  0  0  0  0  0
   -4.7940   -0.9509    0.9190 C   0  0  0  0  0  0  0  0  0  0  0  0
    1.6366   -2.8357    2.7946 C   0  0  0  0  0  0  0  0  0  0  0  0
    5.8692   -0.4423   -0.3882 C   0  0  0  0  0  0  0  0  0  0  0  0
    4.4643    3.1275   -1.0352 C   0  0  0  0  0  0  0  0  0  0  0  0
    1.5469    3.3331   -0.0739 C   0  0  0  0  0  0  0  0  0  0  0  0
   -6.9244   -1.8772   -0.0031 C   0  0  0  0  0  0  0  0  0  0  0  0
   -5.1795   -1.7014   -2.6535 C   0  0  0  0  0  0  0  0  0  0  0  0
    0.1582    3.3149    0.3717 C   0  0  0  0  0  0  0  0  0  0  0  0
   -0.7247    4.4569    0.1134 C   0  0  0  0  0  0  0  0  0  0  0  0
   -1.8873    4.0779    0.6580 C   0  0  0  0  0  0  0  0  0  0  0  0
    2.1982   -1.4362    2.6634 C   0  0  0  0  0  0  0  0  0  0  0  0
   -6.5537   -1.4373   -3.1678 C   0  0  0  0  0  0  0  0  0  0  0  0
    7.1275   -1.1095   -0.8891 C   0  0  0  0  0  0  0  0  0  0  0  0
   -3.1911    4.7805    0.7394 C   0  0  0  0  0  0  0  0  0  0  0  0
   -1.7011    2.7246    1.2356 C   0  0  0  0  0  0  0  0  0  0  0  0
   -0.3498    5.7037   -0.5922 C   0  0  0  0  0  0  0  0  0  0  0  0
   -4.0847    4.4781   -0.4553 C   0  0  0  0  0  0  0  0  0  0  0  0
   -0.0893   -1.0280   -1.9827 H   0  0  0  0  0  0  0  0  0  0  0  0
    3.0949   -2.0308   -1.0903 H   0  0  0  0  0  0  0  0  0  0  0  0
    2.5714   -3.6795    1.0414 H   0  0  0  0  0  0  0  0  0  0  0  0
    1.2286   -4.6168    1.6505 H   0  0  0  0  0  0  0  0  0  0  0  0
   -6.0262    0.0415   -0.4998 H   0  0  0  0  0  0  0  0  0  0  0  0
    4.7051   -0.8860   -2.1658 H   0  0  0  0  0  0  0  0  0  0  0  0
    5.5099    0.6455   -2.2045 H   0  0  0  0  0  0  0  0  0  0  0  0
   -2.4029   -2.4311   -2.4675 H   0  0  0  0  0  0  0  0  0  0  0  0
    0.6443    0.7234   -0.0570 H   0  0  0  0  0  0  0  0  0  0  0  0
   -1.6927   -3.7616    2.0689 H   0  0  0  0  0  0  0  0  0  0  0  0
   -2.5161   -4.3166    0.6030 H   0  0  0  0  0  0  0  0  0  0  0  0
   -1.0470   -5.1254    1.1351 H   0  0  0  0  0  0  0  0  0  0  0  0
   -2.7547   -1.4661    1.1390 H   0  0  0  0  0  0  0  0  0  0  0  0
    0.6486   -2.7774    3.2674 H   0  0  0  0  0  0  0  0  0  0  0  0
    2.2782   -3.3848    3.4936 H   0  0  0  0  0  0  0  0  0  0  0  0
    5.3516   -1.1505    0.2688 H   0  0  0  0  0  0  0  0  0  0  0  0
    6.1647    0.4340    0.2001 H   0  0  0  0  0  0  0  0  0  0  0  0
    4.0905    3.8239   -1.7928 H   0  0  0  0  0  0  0  0  0  0  0  0
    5.4542    2.7904   -1.3564 H   0  0  0  0  0  0  0  0  0  0  0  0
    4.5968    3.6729   -0.0949 H   0  0  0  0  0  0  0  0  0  0  0  0
    2.0564    4.2849   -0.1636 H   0  0  0  0  0  0  0  0  0  0  0  0
   -7.6771   -1.8387   -0.7934 H   0  0  0  0  0  0  0  0  0  0  0  0
   -7.4199   -1.5657    0.9237 H   0  0  0  0  0  0  0  0  0  0  0  0
   -6.6272   -2.9241    0.1300 H   0  0  0  0  0  0  0  0  0  0  0  0
   -4.4723   -2.0892   -3.3813 H   0  0  0  0  0  0  0  0  0  0  0  0
   -7.1407   -2.3602   -3.1854 H   0  0  0  0  0  0  0  0  0  0  0  0
   -6.4844   -1.0686   -4.1973 H   0  0  0  0  0  0  0  0  0  0  0  0
   -7.0892   -0.6685   -2.6051 H   0  0  0  0  0  0  0  0  0  0  0  0
   -3.0287    5.8634    0.7961 H   0  0  0  0  0  0  0  0  0  0  0  0
   -3.7114    4.5085    1.6652 H   0  0  0  0  0  0  0  0  0  0  0  0
    0.4262    6.2413   -0.0383 H   0  0  0  0  0  0  0  0  0  0  0  0
   -1.2039    6.3779   -0.7071 H   0  0  0  0  0  0  0  0  0  0  0  0
    0.0290    5.4799   -1.5944 H   0  0  0  0  0  0  0  0  0  0  0  0
   -3.6120    4.7879   -1.3935 H   0  0  0  0  0  0  0  0  0  0  0  0
   -5.0339    5.0155   -0.3621 H   0  0  0  0  0  0  0  0  0  0  0  0
   -4.3076    3.4078   -0.5225 H   0  0  0  0  0  0  0  0  0  0  0  0
    1.5656    0.3947    2.4367 H   0  0  0  0  0  0  0  0  0  0  0  0
    8.7486   -1.9624   -0.2270 H   0  0  0  0  0  0  0  0  0  0  0  0
  1 27  2  0  0  0  0
  2 37  1  0  0  0  0
  2 80  1  0  0  0  0
  3 39  1  0  0  0  0
  3 81  1  0  0  0  0
  4 37  2  0  0  0  0
  5 39  2  0  0  0  0
  6 41  2  0  0  0  0
  7 12  1  0  0  0  0
  7 14  1  0  0  0  0
  7 44  1  0  0  0  0
  8 16  1  0  0  0  0
  8 22  1  0  0  0  0
  8 52  1  0  0  0  0
  9 21  1  0  0  0  0
  9 27  1  0  0  0  0
  9 56  1  0  0  0  0
 10 34  2  0  0  0  0
 10 41  1  0  0  0  0
 11 12  2  0  0  0  0
 11 13  1  0  0  0  0
 11 19  1  0  0  0  0
 12 17  1  0  0  0  0
 13 14  2  0  0  0  0
 13 26  1  0  0  0  0
 14 25  1  0  0  0  0
 15 16  1  0  0  0  0
 15 18  2  0  0  0  0
 15 24  1  0  0  0  0
 16 17  2  0  0  0  0
 17 45  1  0  0  0  0
 18 22  1  0  0  0  0
 18 30  1  0  0  0  0
 19 28  1  0  0  0  0
 19 46  1  0  0  0  0
 19 47  1  0  0  0  0
 20 23  1  0  0  0  0
 20 27  1  0  0  0  0
 20 32  1  0  0  0  0
 20 48  1  0  0  0  0
 21 23  1  0  0  0  0
 21 25  2  0  0  0  0
 22 31  2  0  0  0  0
 23 33  2  0  0  0  0
 24 29  1  0  0  0  0
 24 49  1  0  0  0  0
 24 50  1  0  0  0  0
 25 51  1  0  0  0  0
 26 53  1  0  0  0  0
 26 54  1  0  0  0  0
 26 55  1  0  0  0  0
 28 37  1  0  0  0  0
 28 57  1  0  0  0  0
 28 58  1  0  0  0  0
 29 39  1  0  0  0  0
 29 59  1  0  0  0  0
 29 60  1  0  0  0  0
 30 61  1  0  0  0  0
 30 62  1  0  0  0  0
 30 63  1  0  0  0  0
 31 34  1  0  0  0  0
 31 64  1  0  0  0  0
 32 65  1  0  0  0  0
 32 66  1  0  0  0  0
 32 67  1  0  0  0  0
 33 38  1  0  0  0  0
 33 68  1  0  0  0  0
 34 35  1  0  0  0  0
 35 36  2  0  0  0  0
 35 42  1  0  0  0  0
 36 40  1  0  0  0  0
 36 41  1  0  0  0  0
 38 69  1  0  0  0  0
 38 70  1  0  0  0  0
 38 71  1  0  0  0  0
 40 43  1  0  0  0  0
 40 72  1  0  0  0  0
 40 73  1  0  0  0  0
 42 74  1  0  0  0  0
 42 75  1  0  0  0  0
 42 76  1  0  0  0  0
 43 77  1  0  0  0  0
 43 78  1  0  0  0  0
 43 79  1  0  0  0  0
M  END
> <PUBCHEM_COMPOUND_CID>
20055378

> <PUBCHEM_CONFORMER_RMSD>
1.2

> <PUBCHEM_CONFORMER_DIVERSEORDER>
1
31
87
75
41
65
79
13
39
89
91
21
51
14
68
33
69
88
38
52
70
90
40
11
94
77
82
59
71
17
92
64
60
34
54
24
73
45
81
53
28
96
76
100
85
61
46
27
19
72
26
84
18
48
10
97
12
42
3
63
43
66
58
95
30
49
16
86
32
36
67
23
57
6
37
44
62
78
56
29
93
15
9
74
25
5
47
55
50
7
20
22
99
98
8
4
83
80
35
2

> <PUBCHEM_MMFF94_PARTIAL_CHARGES>
50
1 -0.57
10 -0.66
11 -0.18
12 -0.2
13 -0.18
14 -0.2
15 -0.14
16 0.1
17 -0.11
18 -0.14
19 0.18
2 -0.65
20 0.2
21 0.11
22 0.1
23 -0.14
24 0.14
25 -0.11
26 0.18
27 0.57
28 0.06
29 0.06
3 -0.65
30 0.14
31 -0.14
33 -0.29
34 0.42
35 -0.12
36 -0.12
37 0.66
38 0.14
39 0.66
4 -0.57
40 0.14
41 0.77
42 0.14
44 0.27
45 0.15
5 -0.57
51 0.15
52 0.4
56 0.37
6 -0.57
64 0.15
68 0.15
7 0.03
8 -0.6
80 0.5
81 0.5
9 -0.54

> <PUBCHEM_EFFECTIVE_ROTOR_COUNT>
10.4

> <PUBCHEM_PHARMACOPHORE_FEATURES>
21
1 1 acceptor
1 10 acceptor
1 10 donor
1 2 acceptor
1 3 acceptor
1 38 hydrophobe
1 4 acceptor
1 43 hydrophobe
1 5 acceptor
1 6 acceptor
1 7 cation
1 7 donor
1 8 cation
1 8 donor
1 9 donor
3 2 4 37 anion
3 3 5 39 anion
5 10 34 35 36 41 rings
5 7 11 12 13 14 rings
5 8 15 16 18 22 rings
5 9 20 21 23 27 rings

> <PUBCHEM_HEAVY_ATOM_COUNT>
43

> <PUBCHEM_ATOM_DEF_STEREO_COUNT>
1

> <PUBCHEM_ATOM_UDEF_STEREO_COUNT>
0

> <PUBCHEM_BOND_DEF_STEREO_COUNT>
4

> <PUBCHEM_BOND_UDEF_STEREO_COUNT>
0

> <PUBCHEM_ISOTOPIC_ATOM_COUNT>
0

> <PUBCHEM_COMPONENT_COUNT>
1

> <PUBCHEM_CACTVS_TAUTO_COUNT>
84

> <PUBCHEM_CONFORMER_ID>
0132055200000001

> <PUBCHEM_MMFF94_ENERGY>
88.2624

> <PUBCHEM_FEATURE_SELFOVERLAP>
106.74

> <PUBCHEM_SHAPE_FINGERPRINT>
10190206 1 18335707118315949326
10675989 125 18265611172738329964
10815517 723 18343030969088850116
11421498 54 18408884010089533482
12156800 1 18127671782988657242
12788726 201 18410286995648008523
14028597 1 18113891646734189874
14068700 675 17846224387967567265
15276724 80 18273218629793741844
15420108 30 17977105661329503568
15927050 60 17908429056766836990
15975801 100 18267026051092818968
19311894 1 18267592488127797555
20764821 26 18339632340462505629
21133410 62 18187927344010889515
21792965 11 17168440298075220721
24893992 56 18337675321682445379
4066623 53 18200581596721206244
46939830 39 17895196652911566996
6086070 43 18263350559747010703

> <PUBCHEM_SHAPE_MULTIPOLES>
829.78
14.65
7.27
2.4
5.36
10.42
0.51
-8.51
-8.66
-3.87
1.65
-0.82
-1.83
-2.73

> <PUBCHEM_SHAPE_SELFOVERLAP>
1785.217

> <PUBCHEM_SHAPE_VOLUME>
462.6

> <PUBCHEM_COORDINATE_TYPE>
2
5
10

$$$$
